%chk=do_113_c_vt_anh_19D.chk
%mem=14GB
%nprocs=7
# freq(readiso,anharmonic) rmp2=full/6-31g(d,p) maxdisk=40GB

Title Card Required

0 1
 C                 -0.10260200   -0.79738800   -1.03253300
 C                  0.86764700   -1.41789700   -0.02522700
 C                 -0.10342400    0.77439000   -1.05319200
 H                 -0.00602700   -1.21789100   -2.03561600
 C                 -1.45540800   -1.13298700   -0.35885300
 C                  0.88135300    1.42982200   -0.06951000
 H                 -0.00040900    1.16280300   -2.06612300
 O                  2.27134700   -1.26641100   -0.26437500
 H                  0.64491000   -2.49016300    0.04189100
 C                  0.41924200   -0.76181400    1.26540200
 H                 -1.79352900   -2.15683200   -0.51519500
 C                 -1.12975900   -0.76558800    1.11213500
 C                 -1.45725000    1.11371400   -0.39059500
 C                 -2.39058900   -0.01644600   -0.80403800
 O                  2.25515100    1.40682900   -0.37086600
 H                  0.61864000    2.49158700   -0.02724400
 C                  0.41436100    0.80098500    1.24263500
 H                  0.84214300   -1.21381700    2.16007500
 H                  2.46183600   -1.66592000   -1.12315500
 H                 -1.72954400   -1.27583800    1.86322500
 H                 -1.79926100    2.13109000   -0.57508000
 C                 -1.13239500    0.78994700    1.09139100
 H                 -3.33426700   -0.01303500   -0.25535600
 H                 -2.59997800   -0.03203200   -1.87461600
 H                  0.83603700    1.26901200    2.12965600
 H                  2.52047300    0.47276500   -0.33246300
 H                 -1.74007000    1.31449800    1.82622400

298.15	1.0
12
12
12
1
12
12
1
16
1
12
1
12
12
12
16
1
12
1
2
1
1
12
1
1
1
1
1

